INIT MASTER(S)
NASTRAN SYSTEM(442)=-1,SYSTEM(319)=1
ID capped,Femap
SOL SESTATIC
TIME 10000
CEND
  TITLE = NX Nastran Static Analysis Set
  ECHO = NONE
  DISPLACEMENT(PLOT) = ALL
  SPCFORCE(PLOT) = ALL
  OLOAD(PLOT) = ALL
  FORCE(PLOT,CORNER) = ALL
  STRESS(PLOT,CORNER) = ALL
  SPC = 1
  LOAD = 1
BEGIN BULK
$ ***************************************************************************
$   Written by : Femap
$   Version    : 11.2.2
$   Translator : NX Nastran
$   From Model : C:\NNData\fea\bellow\capped_bellow.modfem
$   Date       : Tue Sep 15 13:42:29 2020
$ ***************************************************************************
$
PARAM,POST,-1
PARAM,OGEOM,NO
PARAM,AUTOSPC,YES
PARAM,GRDPNT,0
CORD2C         1       0      0.      0.      0.      0.      0.      1.+FEMAPC1
+FEMAPC1      1.      0.      1.        
CORD2S         2       0      0.      0.      0.      0.      0.      1.+FEMAPC2
+FEMAPC2      1.      0.      1.        
$ Femap Load Set 1 : Untitled
FORCE          1    1370       0      1.      0.   -2.+4      0.
$ Femap Constraint Set 1 : Untitled
SPC1           1     123      37
SPC1           1     123      74
SPC1           1     123     111
SPC1           1     123     148
SPC1           1     123     185
SPC1           1     123     222
SPC1           1     123     259
SPC1           1     123     296
SPC1           1     123     333
SPC1           1     123     370
SPC1           1     123     407
SPC1           1     123     444
SPC1           1     123     481
SPC1           1     123     518
SPC1           1     123     555
SPC1           1     123     592
SPC1           1     123     629
SPC1           1     123     666
SPC1           1     123     703
SPC1           1     123     740
$ ... 16 like lines cut
$ Femap Property 1 : shell
PSHELL         1       1   .0254       1               1              0.
$ Femap Property 2 : top
PSHELL         2       2     1.5       2               2              0.
$ Femap Material 1 : 2024-T351 Al Plate .25-.5
MAT1           1  1.07+7             .332.5906-4 1.255-5     70.        +       
+         42000.  40000.  38000.
MAT4           1.0016435  83.0762.5906-4                        
$ Femap Material 2 : AISI 4130 Steel
MAT1           2   2.9+7             .327.3315-4   6.6-6     70.        
MAT4           25.5555-440.533367.3315-4                        
GRID           1       0      1.     1.5      0.       0
GRID           2       01.0416671.458333      0.       0
GRID           3       01.0833331.416667      0.       0
GRID           4       0   1.125   1.375      0.       0
GRID           5       01.1666671.333333      0.       0
GRID           6       01.2083331.291667      0.       0
GRID           7       0    1.25    1.25      0.       0
GRID           8       01.2083331.208333      0.       0
GRID           9       01.1666671.166667      0.       0
GRID          10       0   1.125   1.125      0.       0
GRID          11       01.0833331.083333      0.       0
GRID          12       01.0416671.041667      0.       0
GRID          13       0      1.      1.      0.       0
GRID          14       01.041667.9583333      0.       0
GRID          15       01.083333.9166667      0.       0
GRID          16       0   1.125    .875      0.       0
GRID          17       01.166667.8333333      0.       0
GRID          18       01.208333.7916667      0.       0
GRID          19       0    1.25     .75      0.       0
GRID          20       01.208333.7083333      0.       0
$ ... 1493 like lines cut
CQUAD4         1       1       1       2      39      38                
CQUAD4         2       1       2       3      40      39                
CQUAD4         3       1       3       4      41      40                
CQUAD4         4       1       4       5      42      41                
CQUAD4         5       1       5       6      43      42                
CQUAD4         6       1       6       7      44      43                
CQUAD4         7       1       7       8      45      44                
CQUAD4         8       1       8       9      46      45                
CQUAD4         9       1       9      10      47      46                
CQUAD4        10       1      10      11      48      47                
CQUAD4        11       1      11      12      49      48                
CQUAD4        12       1      12      13      50      49                
CQUAD4        13       1      13      14      51      50                
CQUAD4        14       1      14      15      52      51                
CQUAD4        15       1      15      16      53      52                
CQUAD4        16       1      16      17      54      53                
CQUAD4        17       1      17      18      55      54                
CQUAD4        18       1      18      19      56      55                
CQUAD4        19       1      19      20      57      56                
CQUAD4        20       1      20      21      58      57                
$ ... 1276 like lines cut
CTRIA3      1297       2    1370    1371    1378                        
CQUAD4      1298       2    1371    1372    1379    1378                
CQUAD4      1299       2    1372    1373    1380    1379                
CQUAD4      1300       2    1373    1374    1381    1380                
CQUAD4      1301       2    1374    1375    1382    1381                
CQUAD4      1302       2    1375       1      38    1382                
CTRIA3      1303       2    1370    1378    1385                        
CQUAD4      1304       2    1378    1379    1386    1385                
CQUAD4      1305       2    1379    1380    1387    1386                
CQUAD4      1306       2    1380    1381    1388    1387                
CQUAD4      1307       2    1381    1382    1389    1388                
CQUAD4      1308       2    1382      38      75    1389                
CTRIA3      1309       2    1370    1385    1392                        
CQUAD4      1310       2    1385    1386    1393    1392                
CQUAD4      1311       2    1386    1387    1394    1393                
CQUAD4      1312       2    1387    1388    1395    1394                
CQUAD4      1313       2    1388    1389    1396    1395                
CQUAD4      1314       2    1389      75     112    1396                
CTRIA3      1315       2    1370    1392    1399                        
CQUAD4      1316       2    1392    1393    1400    1399                
CQUAD4      1317       2    1393    1394    1401    1400                
CQUAD4      1318       2    1394    1395    1402    1401                
CQUAD4      1319       2    1395    1396    1403    1402                
CQUAD4      1320       2    1396     112     149    1403                
CTRIA3      1321       2    1370    1399    1406                        
CQUAD4      1322       2    1399    1400    1407    1406                
CQUAD4      1323       2    1400    1401    1408    1407                
CQUAD4      1324       2    1401    1402    1409    1408                
CQUAD4      1325       2    1402    1403    1410    1409                
CQUAD4      1326       2    1403     149     186    1410                
CTRIA3      1327       2    1370    1406    1413                        
CQUAD4      1328       2    1406    1407    1414    1413                
CQUAD4      1329       2    1407    1408    1415    1414                
CQUAD4      1330       2    1408    1409    1416    1415                
CQUAD4      1331       2    1409    1410    1417    1416                
CQUAD4      1332       2    1410     186     223    1417                
CTRIA3      1333       2    1370    1413    1420                        
CQUAD4      1334       2    1413    1414    1421    1420                
CQUAD4      1335       2    1414    1415    1422    1421                
CQUAD4      1336       2    1415    1416    1423    1422                
CQUAD4      1337       2    1416    1417    1424    1423                
CQUAD4      1338       2    1417     223     260    1424                
CTRIA3      1339       2    1370    1420    1427                        
CQUAD4      1340       2    1420    1421    1428    1427                
CQUAD4      1341       2    1421    1422    1429    1428                
CQUAD4      1342       2    1422    1423    1430    1429                
CQUAD4      1343       2    1423    1424    1431    1430                
CQUAD4      1344       2    1424     260     297    1431                
CTRIA3      1345       2    1370    1427    1434                        
CQUAD4      1346       2    1427    1428    1435    1434                
CQUAD4      1347       2    1428    1429    1436    1435                
CQUAD4      1348       2    1429    1430    1437    1436                
CQUAD4      1349       2    1430    1431    1438    1437                
CQUAD4      1350       2    1431     297     334    1438                
CTRIA3      1351       2    1370    1434    1441                        
CQUAD4      1352       2    1434    1435    1442    1441                
CQUAD4      1353       2    1435    1436    1443    1442                
CQUAD4      1354       2    1436    1437    1444    1443                
CQUAD4      1355       2    1437    1438    1445    1444                
CQUAD4      1356       2    1438     334     371    1445                
CTRIA3      1357       2    1370    1441    1448                        
CQUAD4      1358       2    1441    1442    1449    1448                
CQUAD4      1359       2    1442    1443    1450    1449                
CQUAD4      1360       2    1443    1444    1451    1450                
CQUAD4      1361       2    1444    1445    1452    1451                
CQUAD4      1362       2    1445     371     408    1452                
CTRIA3      1363       2    1370    1448    1455                        
CQUAD4      1364       2    1448    1449    1456    1455                
CQUAD4      1365       2    1449    1450    1457    1456                
CQUAD4      1366       2    1450    1451    1458    1457                
CQUAD4      1367       2    1451    1452    1459    1458                
CQUAD4      1368       2    1452     408     445    1459                
CTRIA3      1369       2    1370    1455    1462                        
CQUAD4      1370       2    1455    1456    1463    1462                
CQUAD4      1371       2    1456    1457    1464    1463                
CQUAD4      1372       2    1457    1458    1465    1464                
CQUAD4      1373       2    1458    1459    1466    1465                
CQUAD4      1374       2    1459     445     482    1466                
CTRIA3      1375       2    1370    1462    1469                        
CQUAD4      1376       2    1462    1463    1470    1469                
CQUAD4      1377       2    1463    1464    1471    1470                
CQUAD4      1378       2    1464    1465    1472    1471                
CQUAD4      1379       2    1465    1466    1473    1472                
CQUAD4      1380       2    1466     482     519    1473                
CTRIA3      1381       2    1370    1469    1476                        
CQUAD4      1382       2    1469    1470    1477    1476                
CQUAD4      1383       2    1470    1471    1478    1477                
CQUAD4      1384       2    1471    1472    1479    1478                
CQUAD4      1385       2    1472    1473    1480    1479                
CQUAD4      1386       2    1473     519     556    1480                
CTRIA3      1387       2    1370    1476    1483                        
CQUAD4      1388       2    1476    1477    1484    1483                
CQUAD4      1389       2    1477    1478    1485    1484                
CQUAD4      1390       2    1478    1479    1486    1485                
CQUAD4      1391       2    1479    1480    1487    1486                
CQUAD4      1392       2    1480     556     593    1487                
CTRIA3      1393       2    1370    1483    1490                        
CQUAD4      1394       2    1483    1484    1491    1490                
CQUAD4      1395       2    1484    1485    1492    1491                
CQUAD4      1396       2    1485    1486    1493    1492                
CQUAD4      1397       2    1486    1487    1494    1493                
CQUAD4      1398       2    1487     593     630    1494                
CTRIA3      1399       2    1370    1490    1497                        
CQUAD4      1400       2    1490    1491    1498    1497                
CQUAD4      1401       2    1491    1492    1499    1498                
CQUAD4      1402       2    1492    1493    1500    1499                
CQUAD4      1403       2    1493    1494    1501    1500                
CQUAD4      1404       2    1494     630     667    1501                
CTRIA3      1405       2    1370    1497    1504                        
CQUAD4      1406       2    1497    1498    1505    1504                
CQUAD4      1407       2    1498    1499    1506    1505                
CQUAD4      1408       2    1499    1500    1507    1506                
CQUAD4      1409       2    1500    1501    1508    1507                
CQUAD4      1410       2    1501     667     704    1508                
CTRIA3      1411       2    1370    1504    1511                        
CQUAD4      1412       2    1504    1505    1512    1511                
CQUAD4      1413       2    1505    1506    1513    1512                
CQUAD4      1414       2    1506    1507    1514    1513                
CQUAD4      1415       2    1507    1508    1515    1514                
CQUAD4      1416       2    1508     704     741    1515                
CTRIA3      1417       2    1370    1511    1518                        
CQUAD4      1418       2    1511    1512    1519    1518                
CQUAD4      1419       2    1512    1513    1520    1519                
CQUAD4      1420       2    1513    1514    1521    1520                
CQUAD4      1421       2    1514    1515    1522    1521                
CQUAD4      1422       2    1515     741     778    1522                
CTRIA3      1423       2    1370    1518    1525                        
CQUAD4      1424       2    1518    1519    1526    1525                
CQUAD4      1425       2    1519    1520    1527    1526                
CQUAD4      1426       2    1520    1521    1528    1527                
CQUAD4      1427       2    1521    1522    1529    1528                
CQUAD4      1428       2    1522     778     815    1529                
CTRIA3      1429       2    1370    1525    1532                        
CQUAD4      1430       2    1525    1526    1533    1532                
CQUAD4      1431       2    1526    1527    1534    1533                
CQUAD4      1432       2    1527    1528    1535    1534                
CQUAD4      1433       2    1528    1529    1536    1535                
CQUAD4      1434       2    1529     815     852    1536                
CTRIA3      1435       2    1370    1532    1539                        
CQUAD4      1436       2    1532    1533    1540    1539                
CQUAD4      1437       2    1533    1534    1541    1540                
CQUAD4      1438       2    1534    1535    1542    1541                
CQUAD4      1439       2    1535    1536    1543    1542                
CQUAD4      1440       2    1536     852     889    1543                
CTRIA3      1441       2    1370    1539    1546                        
CQUAD4      1442       2    1539    1540    1547    1546                
CQUAD4      1443       2    1540    1541    1548    1547                
CQUAD4      1444       2    1541    1542    1549    1548                
CQUAD4      1445       2    1542    1543    1550    1549                
CQUAD4      1446       2    1543     889     926    1550                
CTRIA3      1447       2    1370    1546    1553                        
CQUAD4      1448       2    1546    1547    1554    1553                
CQUAD4      1449       2    1547    1548    1555    1554                
CQUAD4      1450       2    1548    1549    1556    1555                
CQUAD4      1451       2    1549    1550    1557    1556                
CQUAD4      1452       2    1550     926     963    1557                
CTRIA3      1453       2    1370    1553    1560                        
CQUAD4      1454       2    1553    1554    1561    1560                
CQUAD4      1455       2    1554    1555    1562    1561                
CQUAD4      1456       2    1555    1556    1563    1562                
CQUAD4      1457       2    1556    1557    1564    1563                
CQUAD4      1458       2    1557     963    1000    1564                
CTRIA3      1459       2    1370    1560    1567                        
CQUAD4      1460       2    1560    1561    1568    1567                
CQUAD4      1461       2    1561    1562    1569    1568                
CQUAD4      1462       2    1562    1563    1570    1569                
CQUAD4      1463       2    1563    1564    1571    1570                
CQUAD4      1464       2    1564    1000    1037    1571                
CTRIA3      1465       2    1370    1567    1574                        
CQUAD4      1466       2    1567    1568    1575    1574                
CQUAD4      1467       2    1568    1569    1576    1575                
CQUAD4      1468       2    1569    1570    1577    1576                
CQUAD4      1469       2    1570    1571    1578    1577                
CQUAD4      1470       2    1571    1037    1074    1578                
CTRIA3      1471       2    1370    1574    1581                        
CQUAD4      1472       2    1574    1575    1582    1581                
CQUAD4      1473       2    1575    1576    1583    1582                
CQUAD4      1474       2    1576    1577    1584    1583                
CQUAD4      1475       2    1577    1578    1585    1584                
CQUAD4      1476       2    1578    1074    1111    1585                
CTRIA3      1477       2    1370    1581    1588                        
CQUAD4      1478       2    1581    1582    1589    1588                
CQUAD4      1479       2    1582    1583    1590    1589                
CQUAD4      1480       2    1583    1584    1591    1590                
CQUAD4      1481       2    1584    1585    1592    1591                
CQUAD4      1482       2    1585    1111    1148    1592                
CTRIA3      1483       2    1370    1588    1595                        
CQUAD4      1484       2    1588    1589    1596    1595                
CQUAD4      1485       2    1589    1590    1597    1596                
CQUAD4      1486       2    1590    1591    1598    1597                
CQUAD4      1487       2    1591    1592    1599    1598                
CQUAD4      1488       2    1592    1148    1185    1599                
CTRIA3      1489       2    1370    1595    1602                        
CQUAD4      1490       2    1595    1596    1603    1602                
CQUAD4      1491       2    1596    1597    1604    1603                
CQUAD4      1492       2    1597    1598    1605    1604                
CQUAD4      1493       2    1598    1599    1606    1605                
CQUAD4      1494       2    1599    1185    1222    1606                
CTRIA3      1495       2    1370    1602    1609                        
CQUAD4      1496       2    1602    1603    1610    1609                
CQUAD4      1497       2    1603    1604    1611    1610                
CQUAD4      1498       2    1604    1605    1612    1611                
CQUAD4      1499       2    1605    1606    1613    1612                
CQUAD4      1500       2    1606    1222    1259    1613                
CTRIA3      1501       2    1370    1609    1616                        
CQUAD4      1502       2    1609    1610    1617    1616                
CQUAD4      1503       2    1610    1611    1618    1617                
CQUAD4      1504       2    1611    1612    1619    1618                
CQUAD4      1505       2    1612    1613    1620    1619                
CQUAD4      1506       2    1613    1259    1296    1620                
CTRIA3      1507       2    1370    1616    1371                        
CQUAD4      1508       2    1616    1617    1372    1371                
CQUAD4      1509       2    1617    1618    1373    1372                
CQUAD4      1510       2    1618    1619    1374    1373                
CQUAD4      1511       2    1619    1620    1375    1374                
CQUAD4      1512       2    1620    1296       1    1375                
ENDDATA
