*HEADING
TITLE = Bellow with cap
**
** ---------------------------------------------------
** ---- *NODE ----------------------------------------
** ---------------------------------------------------
**
** following nodes were defined in the global coordinate system
**
*SYSTEM
**
*NODE, SYSTEM=R
       1,          1.,         1.5,          0.
       2,    1.041667,    1.458333,          0.
       3,    1.083333,    1.416667,          0.
       4,       1.125,       1.375,          0.
       5,    1.166667,    1.333333,          0.
       6,    1.208333,    1.291667,          0.
       7,        1.25,        1.25,          0.
       8,    1.208333,    1.208333,          0.
       9,    1.166667,    1.166667,          0.
      10,       1.125,       1.125,          0.
      11,    1.083333,    1.083333,          0.
      12,    1.041667,    1.041667,          0.
      13,          1.,          1.,          0.
      14,    1.041667,   0.9583333,          0.
      15,    1.083333,   0.9166667,          0.
      16,       1.125,       0.875,          0.
      17,    1.166667,   0.8333333,          0.
      18,    1.208333,   0.7916667,          0.
      19,        1.25,        0.75,          0.
      20,    1.208333,   0.7083333,          0.
** ... 1493 like lines cut
**
** ---------------------------------------------------
** ---- *MATERIAL ------------------------------------
** ---------------------------------------------------
**
** material data from MAT1 with MID = 1
**
*MATERIAL, NAME=MAT_MID_1
*ELASTIC
1.07e+07, 0.33
*DENSITY
0.00025906,
*EXPANSION, ZERO=70.
1.255e-05,
**
** material data from MAT1 with MID = 2
**
*MATERIAL, NAME=MAT_MID_2
*ELASTIC
2.9e+07, 0.32
*DENSITY
0.00073315,
*EXPANSION, ZERO=70.
6.6e-06,
**
*SECTION CONTROLS, NAME=REDUCED_INTEGRATION_FROMNASTRAN
**
** ---------------------------------------------------------------------
** --- SHELL elements (isotropic, non-directional, grouped by PSHELL ID)
** ---------------------------------------------------------------------
**
** this SHELL SECTION comes from PSHELL entries with PID = 1
**
*SHELL SECTION, ELSET=PSHELL_1, MATERIAL=MAT_MID_1
0.0254,
**
*ELEMENT, TYPE=S4, ELSET=PSHELL_1
**
1, 1, 2, 39, 38
2, 2, 3, 40, 39
3, 3, 4, 41, 40
4, 4, 5, 42, 41
5, 5, 6, 43, 42
6, 6, 7, 44, 43
7, 7, 8, 45, 44
8, 8, 9, 46, 45
9, 9, 10, 47, 46
10, 10, 11, 48, 47
11, 11, 12, 49, 48
12, 12, 13, 50, 49
13, 13, 14, 51, 50
14, 14, 15, 52, 51
15, 15, 16, 53, 52
16, 16, 17, 54, 53
17, 17, 18, 55, 54
18, 18, 19, 56, 55
19, 19, 20, 57, 56
20, 20, 21, 58, 57
** ... 1276 like lines cut
**
** this SHELL SECTION comes from PSHELL entries with PID = 2
**
*SHELL SECTION, ELSET=PSHELL_2, MATERIAL=MAT_MID_2
1.5,
**
*ELEMENT, TYPE=S3, ELSET=PSHELL_2
**
1297, 1370, 1371, 1378
1303, 1370, 1378, 1385
1309, 1370, 1385, 1392
1315, 1370, 1392, 1399
1321, 1370, 1399, 1406
1327, 1370, 1406, 1413
1333, 1370, 1413, 1420
1339, 1370, 1420, 1427
1345, 1370, 1427, 1434
1351, 1370, 1434, 1441
1357, 1370, 1441, 1448
1363, 1370, 1448, 1455
1369, 1370, 1455, 1462
1375, 1370, 1462, 1469
1381, 1370, 1469, 1476
1387, 1370, 1476, 1483
1393, 1370, 1483, 1490
1399, 1370, 1490, 1497
1405, 1370, 1497, 1504
1411, 1370, 1504, 1511
** ... 16 like lines cut
**
*ELEMENT, TYPE=S4, ELSET=PSHELL_2
**
1298, 1371, 1372, 1379, 1378
1299, 1372, 1373, 1380, 1379
1300, 1373, 1374, 1381, 1380
1301, 1374, 1375, 1382, 1381
1302, 1375, 1, 38, 1382
1304, 1378, 1379, 1386, 1385
1305, 1379, 1380, 1387, 1386
1306, 1380, 1381, 1388, 1387
1307, 1381, 1382, 1389, 1388
1308, 1382, 38, 75, 1389
1310, 1385, 1386, 1393, 1392
1311, 1386, 1387, 1394, 1393
1312, 1387, 1388, 1395, 1394
1313, 1388, 1389, 1396, 1395
1314, 1389, 75, 112, 1396
1316, 1392, 1393, 1400, 1399
1317, 1393, 1394, 1401, 1400
1318, 1394, 1395, 1402, 1401
1319, 1395, 1396, 1403, 1402
1320, 1396, 112, 149, 1403
** ... 160 like lines cut
**
** elset ALL_SHELL_ISO contains 1512 elements in 2 elsets
*ELSET, ELSET=ALL_SHELL_ISO
PSHELL_1,
PSHELL_2,
**
** elset ALL_MASSIVE_ELEMENTS contains all 1512 elements that can have mass
*ELSET, ELSET=ALL_MASSIVE_ELEMENTS
ALL_SHELL_ISO,
** ---------------------------------------------------
*STEP
*STATIC
**
** output request from "DISPLACEMENT(SORT1[default],PLOT)=ALL"
*OUTPUT, FIELD
*NODE OUTPUT
U,
**
** ------------------------------------
** ------ LOADCASE data for SUBCASE 0
** ------------------------------------
*BOUNDARY, OP=NEW
** from SPC set 1
      37, 1,3, 0.
      74, 1,3, 0.
     111, 1,3, 0.
     148, 1,3, 0.
     185, 1,3, 0.
     222, 1,3, 0.
     259, 1,3, 0.
     296, 1,3, 0.
     333, 1,3, 0.
     370, 1,3, 0.
     407, 1,3, 0.
     444, 1,3, 0.
     481, 1,3, 0.
     518, 1,3, 0.
     555, 1,3, 0.
     592, 1,3, 0.
     629, 1,3, 0.
     666, 1,3, 0.
     703, 1,3, 0.
     740, 1,3, 0.
** ... 16 like lines cut
*CLOAD, OP=NEW
    1370, 2, -2.e+04
*END STEP
